17

C	-3.59200	2.26900	0.0
C	-2.82300	0.93600	-0.0
C	-1.28400	0.93400	-0.0
C	-0.51000	2.26500	-0.0
C	-1.28000	3.60300	0.0
C	-2.82000	3.60100	0.0
O	-5.10200	2.27100	0.0
O	-3.58000	-0.37000	-0.0
H	-0.71700	-0.05400	-0.0
O	1.00200	2.25800	-0.0
O	-0.52700	4.91500	0.0
H	-3.38900	4.58800	0.0
Fe	1.59500	4.36600	0.0
X 2.91136 5.13765 0.0
X -4.34112 0.950482 0.0
Xx -3.58000	-0.37000	-0.0
Xx 2.13360 6.45460 0.00
0	1	S
0	5	S
0	6	D
1	2	S
1	7	D
2	3	D
2	8	S
3	4	S
3	9	S
4	5	D
4	10	S
5	11	S
9	12	S
10	12	S
13  12  S
14  6   S