36
30	31	32	
C	-1.40581	-0.39036	0.00000
C	-0.00581	-0.39036	0.00000
C	0.69419	0.82208	0.00000
C	-0.00581	2.03451	0.00000
C	-1.40581	2.03451	0.00000
C	-2.10581	0.82208	0.00000
C	0.69419	3.24695	-0.00000
C	2.09419	3.24695	-0.00000
C	2.79419	2.03451	-0.00000
C	2.09419	0.82208	-0.00000
C	-2.10581	-1.60280	0.00000
C	-1.40581	-2.81523	0.00000
C	-0.00581	-2.81523	0.00000
C	0.69419	-1.60280	0.00000
C	-3.50581	0.82208	-0.00000
C	-4.20581	2.03451	-0.00000
C	-3.50581	3.24695	-0.00000
C	-2.10581	3.24695	-0.00000
H	0.16919	4.15627	-0.00000
O	2.72419	4.33814	-0.00000
O	4.05419	2.03451	-0.00000
H	2.61919	-0.08725	-0.00000
H	-3.15581	-1.60280	0.00000
O	-2.03581	-3.90642	0.00000
O	0.62419	-3.90642	0.00000
H	1.74419	-1.60280	0.00000
H	-4.03081	-0.08725	-0.00000
O	-5.46581	2.03451	-0.00000
O	-4.13581	4.33814	-0.00000
H	-1.58081	4.15627	-0.00000
X	-4.80081	3.18632	-0.00000
X	3.38919	3.18632	-0.00000
X	-0.70581	-3.90642	0.00000
Xx         -4.13581	4.33814	-0.00000
Xx         4.05419	2.03451	-0.00000
Xx         -2.03581	-3.90642	0.00000
1	0	A
2	1	A
3	2	A
4	3	A
5	4	A
5	0	A
6	3	A
7	6	A
8	7	S
9	2	A
9	8	A
10	0	A
11	10	A
12	11	S
13	1	A
13	12	A
14	5	A
15	14	A
16	15	S
17	16	A
17	4	A
18	6	S
19	7	S
20	8	S
21	9	S
22	10	S
23	11	S
24	12	S
25	13	S
26	14	S
27	15	S
28	16	S
29	17	S
30         27         S
31         19         S
32         24         S